xflr5 v6.57

 Calculated polar for: NACA 0012

 1 1 Reynolds number fixed          Mach number fixed         

 xtrf =   1.000 (top)        1.000 (bottom)
 Mach =   0.000     Re =     0.059 e 6     Ncrit =   9.000

  alpha     CL        CD       CDp       Cm    Top Xtr Bot Xtr   Cpmin    Chinge    XCp    
 ------- -------- --------- --------- -------- ------- ------- -------- --------- ---------
   0.000  -0.0000   0.01971   0.01078   0.0000  1.0000  1.0000  -0.4098   0.0000   0.0000   0.0000   0.3620
   0.250  -0.0171   0.01977   0.01082   0.0053  1.0000  1.0000  -0.4117   0.0000   0.0000   0.0000   0.5649
   0.500  -0.0298   0.01994   0.01097   0.0100  1.0000  1.0000  -0.4102   0.0000   0.0000   0.0000   0.5886
   0.750  -0.0363   0.02024   0.01123   0.0135  1.0000  1.0000  -0.4127   0.0000   0.0000   0.0000   0.6294
   1.000  -0.0128   0.02080   0.01177   0.0119  0.9938  1.0000  -0.4390   0.0000   0.0000   0.0000   1.2024
   1.250   0.0649   0.02148   0.01252   0.0010  0.9711  1.0000  -0.5123   0.0000   0.0000   0.0000   0.2258
   1.500   0.1451   0.02190   0.01306  -0.0097  0.9477  1.0000  -0.5996   0.0000   0.0000   0.0000   0.3112
   1.750   0.2346   0.02193   0.01327  -0.0212  0.9240  1.0000  -0.7138   0.0000   0.0000   0.0000   0.3363
   2.000   0.3050   0.02166   0.01321  -0.0286  0.8948  1.0000  -0.8240   0.0000   0.0000   0.0000   0.3399
   2.250   0.3625   0.02121   0.01290  -0.0329  0.8631  1.0000  -0.9340   0.0000   0.0000   0.0000   0.3368
   2.500   0.4074   0.02071   0.01249  -0.0342  0.8308  1.0000  -1.0371   0.0000   0.0000   0.0000   0.3301
   2.750   0.4404   0.02030   0.01210  -0.0331  0.7984  1.0000  -1.1320   0.0000   0.0000   0.0000   0.3211
   3.000   0.4610   0.02023   0.01202  -0.0303  0.7620  1.0000  -1.2068   0.0000   0.0000   0.0000   0.3116
   3.250   0.4818   0.02016   0.01199  -0.0275  0.7256  1.0000  -1.2857   0.0000   0.0000   0.0000   0.3027
   3.500   0.5027   0.02010   0.01184  -0.0245  0.6894  1.0000  -1.3777   0.0000   0.0000   0.0000   0.2943
   3.750   0.5231   0.02016   0.01176  -0.0216  0.6526  1.0000  -1.4697   0.0000   0.0000   0.0000   0.2866
   4.000   0.5413   0.02040   0.01192  -0.0189  0.6117  1.0000  -1.5563   0.0000   0.0000   0.0000   0.2800
   4.250   0.5609   0.02061   0.01195  -0.0161  0.5715  1.0000  -1.6483   0.0000   0.0000   0.0000   0.2737
   4.500   0.5798   0.02097   0.01214  -0.0136  0.5298  1.0000  -1.7383   0.0000   0.0000   0.0000   0.2682
   4.750   0.5983   0.02138   0.01237  -0.0110  0.4863  1.0000  -1.8299   0.0000   0.0000   0.0000   0.2630
   5.000   0.6166   0.02193   0.01270  -0.0086  0.4428  1.0000  -1.9354   0.0000   0.0000   0.0000   0.2584
   5.250   0.6347   0.02255   0.01307  -0.0063  0.3992  1.0000  -2.0406   0.0000   0.0000   0.0000   0.2541
   5.500   0.6523   0.02338   0.01379  -0.0041  0.3567  1.0000  -2.1423   0.0000   0.0000   0.0000   0.2502
   5.750   0.6704   0.02426   0.01436  -0.0020  0.3184  1.0000  -2.2454   0.0000   0.0000   0.0000   0.2467
   6.000   0.6887   0.02540   0.01537  -0.0001  0.2843  1.0000  -2.3404   0.0000   0.0000   0.0000   0.2437
   6.250   0.7069   0.02650   0.01637   0.0017  0.2543  1.0000  -2.4349   0.0000   0.0000   0.0000   0.2409
   6.500   0.7266   0.02785   0.01764   0.0033  0.2306  1.0000  -2.5265   0.0000   0.0000   0.0000   0.2386
   6.750   0.7464   0.02932   0.01905   0.0047  0.2107  1.0000  -2.6161   0.0000   0.0000   0.0000   0.2365
   7.000   0.7660   0.03073   0.02036   0.0061  0.1929  1.0000  -2.7099   0.0000   0.0000   0.0000   0.2346
   7.250   0.7864   0.03230   0.02193   0.0074  0.1793  1.0000  -2.8078   0.0000   0.0000   0.0000   0.2330
   7.500   0.8048   0.03457   0.02450   0.0090  0.1694  1.0000  -2.8926   0.0000   0.0000   0.0000   0.2311
   7.750   0.8248   0.03620   0.02613   0.0101  0.1586  1.0000  -3.0166   0.0000   0.0000   0.0000   0.2298
   8.000   0.8384   0.03838   0.02868   0.0120  0.1491  1.0000  -3.0909   0.0000   0.0000   0.0000   0.2276
   8.250   0.8561   0.04041   0.03083   0.0133  0.1419  1.0000  -3.1878   0.0000   0.0000   0.0000   0.2261
   8.500   0.8724   0.04365   0.03409   0.0143  0.1372  1.0000  -3.2719   0.0000   0.0000   0.0000   0.2250
   8.750   0.8770   0.04697   0.03804   0.0168  0.1347  1.0000  -3.2789   0.0000   0.0000   0.0000   0.2221
   9.000   0.8780   0.05087   0.04246   0.0189  0.1330  1.0000  -3.2708   0.0000   0.0000   0.0000   0.2195
   9.250   0.8736   0.05511   0.04714   0.0210  0.1317  1.0000  -3.2453   0.0000   0.0000   0.0000   0.2169
   9.500   0.8633   0.05961   0.05201   0.0228  0.1305  1.0000  -3.2021   0.0000   0.0000   0.0000   0.2144
   9.750   0.8455   0.06459   0.05729   0.0241  0.1302  1.0000  -3.1321   0.0000   0.0000   0.0000   0.2120
  10.000   0.8190   0.07027   0.06318   0.0247  0.1315  1.0000  -3.0272   0.0000   0.0000   0.0000   0.2101
  10.250   0.7884   0.07639   0.06939   0.0243  0.1337  1.0000  -2.9089   0.0000   0.0000   0.0000   0.2091
  10.500   0.7646   0.08327   0.07630   0.0218  0.1355  1.0000  -2.8007   0.0000   0.0000   0.0000   0.2111
  10.750   0.7484   0.09046   0.08350   0.0186  0.1366  1.0000  -2.7086   0.0000   0.0000   0.0000   0.2144
  11.000   0.7384   0.09760   0.09063   0.0156  0.1373  1.0000  -2.6334   0.0000   0.0000   0.0000   0.2179
  11.500   0.5952   0.13624   0.12900  -0.0198  0.2533  1.0000  -1.5346   0.0000   0.0000   0.0000   0.2724
  11.750   0.6512   0.14452   0.13741  -0.0159  0.2419  1.0000  -1.7061   0.0000   0.0000   0.0000   0.2637
  12.000   0.6139   0.14482   0.13758  -0.0201  0.2388  1.0000  -1.5726   0.0000   0.0000   0.0000   0.2715
  12.250   0.6105   0.14689   0.13963  -0.0211  0.2268  1.0000  -1.5561   0.0000   0.0000   0.0000   0.2730
  12.500   0.6705   0.15727   0.15015  -0.0169  0.2195  1.0000  -1.7345   0.0000   0.0000   0.0000   0.2639
  12.750   0.6261   0.15586   0.14859  -0.0222  0.2165  1.0000  -1.5726   0.0000   0.0000   0.0000   0.2733
  13.000   0.6176   0.15772   0.15042  -0.0241  0.2083  1.0000  -1.5291   0.0000   0.0000   0.0000   0.2765
  13.250   0.6312   0.16180   0.15452  -0.0240  0.2021  1.0000  -1.5592   0.0000   0.0000   0.0000   0.2754
  13.500   0.6823   0.17340   0.16630  -0.0207  0.1975  1.0000  -1.7033   0.0000   0.0000   0.0000   0.2680
  13.750   0.6452   0.17128   0.16404  -0.0258  0.1954  1.0000  -1.5570   0.0000   0.0000   0.0000   0.2768
  14.000   0.6347   0.17225   0.16498  -0.0283  0.1884  1.0000  -1.4988   0.0000   0.0000   0.0000   0.2811
  14.250   0.6438   0.17587   0.16861  -0.0289  0.1825  1.0000  -1.5095   0.0000   0.0000   0.0000   0.2811
  14.500   0.6746   0.18368   0.17651  -0.0274  0.1778  1.0000  -1.5917   0.0000   0.0000   0.0000   0.2768
  14.750   0.6799   0.18938   0.18218  -0.0287  0.1758  1.0000  -1.5896   0.0000   0.0000   0.0000   0.2783
  15.000   0.6575   0.18712   0.17983  -0.0329  0.1715  1.0000  -1.4821   0.0000   0.0000   0.0000   0.2854
  15.250   0.6618   0.18985   0.18256  -0.0343  0.1645  1.0000  -1.4893   0.0000   0.0000   0.0000   0.2868
  15.500   0.7070   0.20266   0.19547  -0.0306  0.1563  1.0000  -1.6866   0.0000   0.0000   0.0000   0.2785
  15.750   0.6836   0.19952   0.19224  -0.0351  0.1547  1.0000  -1.5644   0.0000   0.0000   0.0000   0.2860
  16.000   0.6789   0.20018   0.19286  -0.0383  0.1483  1.0000  -1.5185   0.0000   0.0000   0.0000   0.2905


